# Name file for MODFLOW-2005, generated by Flopy version 3.3.6.
#xll:0.0; yll:0.0; rotation:0.0; units:meters; lenuni:2; start_datetime:1-1-1970
LIST               2  square_grid_model.list
DIS               11  square_grid_model.dis
