# Name file for SEAWAT, generated by Flopy version 3.3.6.
LIST               2  square_seawat_model.list
DIS               11  square_seawat_model.dis
