# DIS package for MODFLOW-2005 generated by Flopy 3.3.6
         1        50        50         1         4         2
  0
CONSTANT    3.666000E+01                           #delr                          
CONSTANT    8.867374E+04                           #delc                          
CONSTANT    1.000000E+02                           #model_top                     
CONSTANT    9.000000E+01                           #botm layer 1                  
      1.000000             1  1.000000  SS 
