# Name file for SEAWAT, generated by Flopy version 3.3.6.
LIST               2  wasaga_regional_model.list
DIS               11  wasaga_regional_model.dis
