# DIS package for SEAWAT generated by Flopy 3.3.6
         1       500       500         1         4         2
  0
         0    4.4244                           -1 #delr
         0    4.4238                           -1 #delc
         0       100                           -1 #model_top
         0        90                           -1 #botm layer 1
      1.000000             1  1.000000  SS 
