# DIS package for SEAWAT generated by Flopy 3.3.6
        50       190       220         5         4         2
  0  0  0  0  0  0  0  0  0  0  0  0  0  0  0  0  0  0  0  0  0  0  0  0  0  0  0  0  0  0  0  0  0  0  0  0  0  0  0  0  0  0  0  0  0  0  0  0  0  0
         0        12                           -1 #delr
         0        12                           -1 #delc
         0       190                           -1 #model_top
         0     189.5                           -1 #botm layer 1
         0       189                           -1 #botm layer 2
         0     188.5                           -1 #botm layer 3
         0       188                           -1 #botm layer 4
         0     187.5                           -1 #botm layer 5
         0       187                           -1 #botm layer 6
         0     186.5                           -1 #botm layer 7
         0       186                           -1 #botm layer 8
         0     185.5                           -1 #botm layer 9
         0       185                           -1 #botm layer 10
         0     184.5                           -1 #botm layer 11
         0       184                           -1 #botm layer 12
         0     183.5                           -1 #botm layer 13
         0       183                           -1 #botm layer 14
         0     182.5                           -1 #botm layer 15
         0       182                           -1 #botm layer 16
         0     181.5                           -1 #botm layer 17
         0       181                           -1 #botm layer 18
         0     180.5                           -1 #botm layer 19
         0       180                           -1 #botm layer 20
         0     179.5                           -1 #botm layer 21
         0       179                           -1 #botm layer 22
         0     178.5                           -1 #botm layer 23
         0       178                           -1 #botm layer 24
         0     177.5                           -1 #botm layer 25
         0       177                           -1 #botm layer 26
         0     176.5                           -1 #botm layer 27
         0       176                           -1 #botm layer 28
         0     175.5                           -1 #botm layer 29
         0       175                           -1 #botm layer 30
         0     174.5                           -1 #botm layer 31
         0       174                           -1 #botm layer 32
         0     173.5                           -1 #botm layer 33
         0       173                           -1 #botm layer 34
         0     172.5                           -1 #botm layer 35
         0       172                           -1 #botm layer 36
         0     171.5                           -1 #botm layer 37
         0       171                           -1 #botm layer 38
         0     170.5                           -1 #botm layer 39
         0       170                           -1 #botm layer 40
         0     169.5                           -1 #botm layer 41
         0       169                           -1 #botm layer 42
         0     168.5                           -1 #botm layer 43
         0       168                           -1 #botm layer 44
         0     167.5                           -1 #botm layer 45
         0       167                           -1 #botm layer 46
         0     166.5                           -1 #botm layer 47
         0       166                           -1 #botm layer 48
         0     165.5                           -1 #botm layer 49
         0       165                           -1 #botm layer 50
     30.000000             1  1.000000  SS 
     30.000000             1  1.000000  TR 
     30.000000             1  1.000000  TR 
     30.000000             1  1.000000  TR 
     30.000000             1  1.000000  TR 
