# PCG package for SEAWAT generated by Flopy 3.3.6
50 30 1 0
0.001 1e-05 1.0 0 0 3 1.0 
