# WEL package for SEAWAT generated by Flopy 3.3.6
         2        53 
         0         0 # stress period 1
         1         0 # stress period 2
        29        76        21           0.075
         2         0 # stress period 3
        29        76        21           0.075
        27        66        61           0.075
         2         0 # stress period 4
        29        76        21             0.0
        27        66        61           0.075
         2         0 # stress period 5
        29        76        21             0.0
        27        66        61             0.0
        -1         0 # stress period 6
        -1         0 # stress period 7
