# WEL package for SEAWAT generated by Flopy 3.3.6
         1        53 
         0         0 # stress period 1
         1         0 # stress period 2
        31        76        21           654.0
         1         0 # stress period 3
        31        76        21           654.0
        -1         0 # stress period 4
        -1         0 # stress period 5
