# Name file for SEAWAT, generated by Flopy version 3.3.6.
LIST               2  example_model.list
DIS               11  example_model.dis
BAS6              13  example_model.bas
LPF               15  example_model.lpf
PCG               27  example_model.pcg
OC                14  example_model.oc
DATA(BINARY)      53  example_model.cbc REPLACE
DATA(BINARY)      51  example_model.hds REPLACE
