# OC package for SEAWAT generated by Flopy 3.3.6
HEAD PRINT FORMAT   0
HEAD SAVE UNIT    51
DRAWDOWN PRINT FORMAT   0
COMPACT BUDGET AUX

period 1 step 1 
  save head

period 2 step 1 
  save head

period 3 step 1 
  save head

period 4 step 1 
  save head

period 5 step 1 
  save head

period 6 step 1 
  save head

period 7 step 1 
  save head

