# Name file for SEAWAT, generated by Flopy version 3.3.6.
LIST               2  example_model.list
DIS               11  example_model.dis
BAS6              13  example_model.bas
LPF               15  example_model.lpf
PCG               27  example_model.pcg
OC                14  example_model.oc
WEL               20  example_model.wel
BTN               31  example_model.btn
ADV               32  example_model.adv
DSP               33  example_model.dsp
GCG               35  example_model.gcg
SSM               34  example_model.ssm
RCT               36  example_model.rct
DATA(BINARY)      53  example_model.cbc REPLACE
DATA(BINARY)      51  example_model.hds REPLACE
