# LPF package for MODFLOW-2005 generated by Flopy 3.3.6
        53    -1E+30         0  
         1         1         1         1         1         1         1         1         1         1         1         1         1         1         1         1         1         1         1         1         1         1         1         1         1         1         1         1         1         1         1         1         1         1         1         1         1         1         1         1         1         1         1         1         1         1         1         1         1         1
         0         0         0         0         0         0         0         0         0         0         0         0         0         0         0         0         0         0         0         0         0         0         0         0         0         0         0         0         0         0         0         0         0         0         0         0         0         0         0         0         0         0         0         0         0         0         0         0         0         0
   1.000000E+00   1.000000E+00   1.000000E+00   1.000000E+00   1.000000E+00   1.000000E+00   1.000000E+00   1.000000E+00   1.000000E+00   1.000000E+00   1.000000E+00   1.000000E+00   1.000000E+00   1.000000E+00   1.000000E+00   1.000000E+00   1.000000E+00   1.000000E+00   1.000000E+00   1.000000E+00   1.000000E+00   1.000000E+00   1.000000E+00   1.000000E+00   1.000000E+00   1.000000E+00   1.000000E+00   1.000000E+00   1.000000E+00   1.000000E+00   1.000000E+00   1.000000E+00   1.000000E+00   1.000000E+00   1.000000E+00   1.000000E+00   1.000000E+00   1.000000E+00   1.000000E+00   1.000000E+00   1.000000E+00   1.000000E+00   1.000000E+00   1.000000E+00   1.000000E+00   1.000000E+00   1.000000E+00   1.000000E+00   1.000000E+00   1.000000E+00
         0         0         0         0         0         0         0         0         0         0         0         0         0         0         0         0         0         0         0         0         0         0         0         0         0         0         0         0         0         0         0         0         0         0         0         0         0         0         0         0         0         0         0         0         0         0         0         0         0         0
         0         0         0         0         0         0         0         0         0         0         0         0         0         0         0         0         0         0         0         0         0         0         0         0         0         0         0         0         0         0         0         0         0         0         0         0         0         0         0         0         0         0         0         0         0         0         0         0         0         0
CONSTANT    6.900000E+00                           #hk layer 1                    
CONSTANT    6.900000E-01                           #vka1                          
CONSTANT    6.900000E+00                           #hk layer 2                    
CONSTANT    6.900000E-01                           #vka2                          
CONSTANT    6.900000E+00                           #hk layer 3                    
CONSTANT    6.900000E-01                           #vka3                          
CONSTANT    6.900000E+00                           #hk layer 4                    
CONSTANT    6.900000E-01                           #vka4                          
CONSTANT    6.900000E+00                           #hk layer 5                    
CONSTANT    6.900000E-01                           #vka5                          
CONSTANT    6.900000E+00                           #hk layer 6                    
CONSTANT    6.900000E-01                           #vka6                          
CONSTANT    6.900000E+00                           #hk layer 7                    
CONSTANT    6.900000E-01                           #vka7                          
CONSTANT    6.900000E+00                           #hk layer 8                    
CONSTANT    6.900000E-01                           #vka8                          
CONSTANT    6.900000E+00                           #hk layer 9                    
CONSTANT    6.900000E-01                           #vka9                          
CONSTANT    6.900000E+00                           #hk layer 10                   
CONSTANT    6.900000E-01                           #vka10                         
CONSTANT    6.900000E+00                           #hk layer 11                   
CONSTANT    6.900000E-01                           #vka11                         
CONSTANT    6.900000E+00                           #hk layer 12                   
CONSTANT    6.900000E-01                           #vka12                         
CONSTANT    6.900000E+00                           #hk layer 13                   
CONSTANT    6.900000E-01                           #vka13                         
CONSTANT    6.900000E+00                           #hk layer 14                   
CONSTANT    6.900000E-01                           #vka14                         
CONSTANT    6.900000E+00                           #hk layer 15                   
CONSTANT    6.900000E-01                           #vka15                         
CONSTANT    6.900000E+00                           #hk layer 16                   
CONSTANT    6.900000E-01                           #vka16                         
CONSTANT    6.900000E+00                           #hk layer 17                   
CONSTANT    6.900000E-01                           #vka17                         
CONSTANT    6.900000E+00                           #hk layer 18                   
CONSTANT    6.900000E-01                           #vka18                         
CONSTANT    6.900000E+00                           #hk layer 19                   
CONSTANT    6.900000E-01                           #vka19                         
CONSTANT    6.900000E+00                           #hk layer 20                   
CONSTANT    6.900000E-01                           #vka20                         
CONSTANT    6.900000E+00                           #hk layer 21                   
CONSTANT    6.900000E-01                           #vka21                         
CONSTANT    6.900000E+00                           #hk layer 22                   
CONSTANT    6.900000E-01                           #vka22                         
CONSTANT    6.900000E+00                           #hk layer 23                   
CONSTANT    6.900000E-01                           #vka23                         
CONSTANT    6.900000E+00                           #hk layer 24                   
CONSTANT    6.900000E-01                           #vka24                         
CONSTANT    6.900000E+00                           #hk layer 25                   
CONSTANT    6.900000E-01                           #vka25                         
CONSTANT    6.900000E+00                           #hk layer 26                   
CONSTANT    6.900000E-01                           #vka26                         
CONSTANT    6.900000E+00                           #hk layer 27                   
CONSTANT    6.900000E-01                           #vka27                         
CONSTANT    6.900000E+00                           #hk layer 28                   
CONSTANT    6.900000E-01                           #vka28                         
CONSTANT    6.900000E+00                           #hk layer 29                   
CONSTANT    6.900000E-01                           #vka29                         
CONSTANT    6.900000E+00                           #hk layer 30                   
CONSTANT    6.900000E-01                           #vka30                         
CONSTANT    6.900000E+00                           #hk layer 31                   
CONSTANT    6.900000E-01                           #vka31                         
CONSTANT    6.900000E+00                           #hk layer 32                   
CONSTANT    6.900000E-01                           #vka32                         
CONSTANT    6.900000E+00                           #hk layer 33                   
CONSTANT    6.900000E-01                           #vka33                         
CONSTANT    6.900000E+00                           #hk layer 34                   
CONSTANT    6.900000E-01                           #vka34                         
CONSTANT    6.900000E+00                           #hk layer 35                   
CONSTANT    6.900000E-01                           #vka35                         
CONSTANT    6.900000E+00                           #hk layer 36                   
CONSTANT    6.900000E-01                           #vka36                         
CONSTANT    6.900000E+00                           #hk layer 37                   
CONSTANT    6.900000E-01                           #vka37                         
CONSTANT    6.900000E+00                           #hk layer 38                   
CONSTANT    6.900000E-01                           #vka38                         
CONSTANT    6.900000E+00                           #hk layer 39                   
CONSTANT    6.900000E-01                           #vka39                         
CONSTANT    6.900000E+00                           #hk layer 40                   
CONSTANT    6.900000E-01                           #vka40                         
CONSTANT    6.900000E+00                           #hk layer 41                   
CONSTANT    6.900000E-01                           #vka41                         
CONSTANT    6.900000E+00                           #hk layer 42                   
CONSTANT    6.900000E-01                           #vka42                         
CONSTANT    6.900000E+00                           #hk layer 43                   
CONSTANT    6.900000E-01                           #vka43                         
CONSTANT    6.900000E+00                           #hk layer 44                   
CONSTANT    6.900000E-01                           #vka44                         
CONSTANT    6.900000E+00                           #hk layer 45                   
CONSTANT    6.900000E-01                           #vka45                         
CONSTANT    6.900000E+00                           #hk layer 46                   
CONSTANT    6.900000E-01                           #vka46                         
CONSTANT    6.900000E+00                           #hk layer 47                   
CONSTANT    6.900000E-01                           #vka47                         
CONSTANT    6.900000E+00                           #hk layer 48                   
CONSTANT    6.900000E-01                           #vka48                         
CONSTANT    6.900000E+00                           #hk layer 49                   
CONSTANT    6.900000E-01                           #vka49                         
CONSTANT    6.900000E+00                           #hk layer 50                   
CONSTANT    6.900000E-01                           #vka50                         
