# DIS package for MODFLOW-2005 generated by Flopy 3.3.6
        50       190       220         1         4         2
  0  0  0  0  0  0  0  0  0  0  0  0  0  0  0  0  0  0  0  0  0  0  0  0  0  0  0  0  0  0  0  0  0  0  0  0  0  0  0  0  0  0  0  0  0  0  0  0  0  0
CONSTANT    1.000000E+01                           #delr                          
CONSTANT    1.000000E+01                           #delc                          
CONSTANT    1.900000E+02                           #model_top                     
CONSTANT    1.895000E+02                           #botm layer 1                  
CONSTANT    1.890000E+02                           #botm layer 2                  
CONSTANT    1.885000E+02                           #botm layer 3                  
CONSTANT    1.880000E+02                           #botm layer 4                  
CONSTANT    1.875000E+02                           #botm layer 5                  
CONSTANT    1.870000E+02                           #botm layer 6                  
CONSTANT    1.865000E+02                           #botm layer 7                  
CONSTANT    1.860000E+02                           #botm layer 8                  
CONSTANT    1.855000E+02                           #botm layer 9                  
CONSTANT    1.850000E+02                           #botm layer 10                 
CONSTANT    1.845000E+02                           #botm layer 11                 
CONSTANT    1.840000E+02                           #botm layer 12                 
CONSTANT    1.835000E+02                           #botm layer 13                 
CONSTANT    1.830000E+02                           #botm layer 14                 
CONSTANT    1.825000E+02                           #botm layer 15                 
CONSTANT    1.820000E+02                           #botm layer 16                 
CONSTANT    1.815000E+02                           #botm layer 17                 
CONSTANT    1.810000E+02                           #botm layer 18                 
CONSTANT    1.805000E+02                           #botm layer 19                 
CONSTANT    1.800000E+02                           #botm layer 20                 
CONSTANT    1.795000E+02                           #botm layer 21                 
CONSTANT    1.790000E+02                           #botm layer 22                 
CONSTANT    1.785000E+02                           #botm layer 23                 
CONSTANT    1.780000E+02                           #botm layer 24                 
CONSTANT    1.775000E+02                           #botm layer 25                 
CONSTANT    1.770000E+02                           #botm layer 26                 
CONSTANT    1.765000E+02                           #botm layer 27                 
CONSTANT    1.760000E+02                           #botm layer 28                 
CONSTANT    1.755000E+02                           #botm layer 29                 
CONSTANT    1.750000E+02                           #botm layer 30                 
CONSTANT    1.745000E+02                           #botm layer 31                 
CONSTANT    1.740000E+02                           #botm layer 32                 
CONSTANT    1.735000E+02                           #botm layer 33                 
CONSTANT    1.730000E+02                           #botm layer 34                 
CONSTANT    1.725000E+02                           #botm layer 35                 
CONSTANT    1.720000E+02                           #botm layer 36                 
CONSTANT    1.715000E+02                           #botm layer 37                 
CONSTANT    1.710000E+02                           #botm layer 38                 
CONSTANT    1.705000E+02                           #botm layer 39                 
CONSTANT    1.700000E+02                           #botm layer 40                 
CONSTANT    1.695000E+02                           #botm layer 41                 
CONSTANT    1.690000E+02                           #botm layer 42                 
CONSTANT    1.685000E+02                           #botm layer 43                 
CONSTANT    1.680000E+02                           #botm layer 44                 
CONSTANT    1.675000E+02                           #botm layer 45                 
CONSTANT    1.670000E+02                           #botm layer 46                 
CONSTANT    1.665000E+02                           #botm layer 47                 
CONSTANT    1.660000E+02                           #botm layer 48                 
CONSTANT    1.655000E+02                           #botm layer 49                 
CONSTANT    1.650000E+02                           #botm layer 50                 
      1.000000             1  1.000000  SS 
