# File generated by Flopy version 3.3.6 on 09/19/2023 at 02:48:04.
BEGIN options
END options

BEGIN dimensions
  NLAY  60
  NROW  220
  NCOL  220
END dimensions

BEGIN griddata
  delr
    CONSTANT      12.00000000
  delc
    CONSTANT      12.00000000
  top
    CONSTANT     190.00000000
  botm  LAYERED
    CONSTANT     189.50000000
    CONSTANT     189.00000000
    CONSTANT     188.50000000
    CONSTANT     188.00000000
    CONSTANT     187.50000000
    CONSTANT     187.00000000
    CONSTANT     186.50000000
    CONSTANT     186.00000000
    CONSTANT     185.50000000
    CONSTANT     185.00000000
    CONSTANT     184.50000000
    CONSTANT     184.00000000
    CONSTANT     183.50000000
    CONSTANT     183.00000000
    CONSTANT     182.50000000
    CONSTANT     182.00000000
    CONSTANT     181.50000000
    CONSTANT     181.00000000
    CONSTANT     180.50000000
    CONSTANT     180.00000000
    CONSTANT     179.50000000
    CONSTANT     179.00000000
    CONSTANT     178.50000000
    CONSTANT     178.00000000
    CONSTANT     177.50000000
    CONSTANT     177.00000000
    CONSTANT     176.50000000
    CONSTANT     176.00000000
    CONSTANT     175.50000000
    CONSTANT     175.00000000
    CONSTANT     174.50000000
    CONSTANT     174.00000000
    CONSTANT     173.50000000
    CONSTANT     173.00000000
    CONSTANT     172.50000000
    CONSTANT     172.00000000
    CONSTANT     171.50000000
    CONSTANT     171.00000000
    CONSTANT     170.50000000
    CONSTANT     170.00000000
    CONSTANT     169.50000000
    CONSTANT     169.00000000
    CONSTANT     168.50000000
    CONSTANT     168.00000000
    CONSTANT     167.50000000
    CONSTANT     167.00000000
    CONSTANT     166.50000000
    CONSTANT     166.00000000
    CONSTANT     165.50000000
    CONSTANT     165.00000000
    CONSTANT     164.50000000
    CONSTANT     164.00000000
    CONSTANT     163.50000000
    CONSTANT     163.00000000
    CONSTANT     162.50000000
    CONSTANT     162.00000000
    CONSTANT     161.50000000
    CONSTANT     161.00000000
    CONSTANT     160.50000000
    CONSTANT     160.00000000
END griddata

