# File generated by Flopy version 3.3.6 on 09/19/2023 at 02:48:04.
BEGIN options
END options

BEGIN dimensions
  NPER  5
END dimensions

BEGIN perioddata
      30.00000000  1       0.00000000
      30.00000000  1       0.00000000
      30.00000000  1       0.00000000
      30.00000000  1       0.00000000
      30.00000000  1       1.00000000
END perioddata

