# File generated by Flopy version 3.3.6 on 09/19/2023 at 02:48:04.
BEGIN options
END options

BEGIN packages
  DIS6  example.dis  dis
END packages

