# File generated by Flopy version 3.3.6 on 09/19/2023 at 02:48:04.
BEGIN options
END options

BEGIN timing
  TDIS6  example.tdis
END timing

BEGIN models
  gwf6  example.nam  example
END models

BEGIN exchanges
END exchanges

